%nproc=4
%mem=100mw
#p HF/6-31G* nosymm force int=fine

Title

0 1
C       3.99999995       3.99999995       4.76220894
C       3.99999995       3.99999995       3.23779096
H       3.99999995       5.01895693       5.15722893
H       3.11755696       3.49052095       5.15722893
H       4.88244294       3.49052095       5.15722893
H       3.99999995       2.98104296       2.84277096
H       3.11755696       4.50947894       2.84277096
H       4.88244294       4.50947894       2.84277096





